# generated using pymatgen
data_KLi3Ca7Ti2Si12(O18F)2
_symmetry_space_group_name_H-M   'P 1'
_cell_length_a   20.11182351
_cell_length_b   20.11182351
_cell_length_c   21.09450616
_cell_angle_alpha   27.54936613
_cell_angle_beta   27.54936613
_cell_angle_gamma   28.28127146
_symmetry_Int_Tables_number   1
_chemical_formula_structural   KLi3Ca7Ti2Si12(O18F)2
_chemical_formula_sum   'K2 Li6 Ca14 Ti4 Si24 O72 F4'
_cell_volume   1637.27246798
_cell_formula_units_Z   2
loop_
 _symmetry_equiv_pos_site_id
 _symmetry_equiv_pos_as_xyz
  1  'x, y, z'
loop_
 _atom_site_type_symbol
 _atom_site_label
 _atom_site_symmetry_multiplicity
 _atom_site_fract_x
 _atom_site_fract_y
 _atom_site_fract_z
 _atom_site_occupancy
  K  K0  1  0.92905100  0.07094900  0.75000000  1
  K  K1  1  0.07094900  0.92905100  0.25000000  1
  Li  Li2  1  0.43638600  0.07099800  0.24394000  1
  Li  Li3  1  0.92900200  0.56361400  0.25606000  1
  Li  Li4  1  0.41663900  0.58336100  0.75000000  1
  Li  Li5  1  0.07099800  0.43638600  0.74394000  1
  Li  Li6  1  0.56361400  0.92900200  0.75606000  1
  Li  Li7  1  0.58336100  0.41663900  0.25000000  1
  Ca  Ca8  1  0.43359000  0.71095100  0.85549300  1
  Ca  Ca9  1  0.71095100  0.43359000  0.35549300  1
  Ca  Ca10  1  0.86219900  0.42847200  0.71608800  1
  Ca  Ca11  1  0.14764600  0.29278000  0.07230200  1
  Ca  Ca12  1  0.70722000  0.85235400  0.42769800  1
  Ca  Ca13  1  0.56641000  0.28904900  0.14450700  1
  Ca  Ca14  1  0.00000000  0.00000000  0.00000000  1
  Ca  Ca15  1  0.13780100  0.57152800  0.28391200  1
  Ca  Ca16  1  0.42847200  0.86219900  0.21608800  1
  Ca  Ca17  1  0.28904900  0.56641000  0.64450700  1
  Ca  Ca18  1  0.29278000  0.14764600  0.57230200  1
  Ca  Ca19  1  0.85235400  0.70722000  0.92769800  1
  Ca  Ca20  1  0.00000000  0.00000000  0.50000000  1
  Ca  Ca21  1  0.57152800  0.13780100  0.78391200  1
  Ti  Ti22  1  0.40499200  0.26460900  0.58230100  1
  Ti  Ti23  1  0.73539100  0.59500800  0.91769900  1
  Ti  Ti24  1  0.59500800  0.73539100  0.41769900  1
  Ti  Ti25  1  0.26460900  0.40499200  0.08230100  1
  Si  Si26  1  0.12061600  0.65131200  0.86776800  1
  Si  Si27  1  0.10766000  0.75454300  0.99765100  1
  Si  Si28  1  0.73345500  0.00409900  0.12160300  1
  Si  Si29  1  0.24635100  0.23071100  0.88496400  1
  Si  Si30  1  0.26654500  0.99590100  0.87839700  1
  Si  Si31  1  0.89234000  0.24545700  0.00234900  1
  Si  Si32  1  0.87938400  0.34868800  0.13223200  1
  Si  Si33  1  0.99590100  0.26654500  0.37839700  1
  Si  Si34  1  0.14191200  0.51077600  0.48822100  1
  Si  Si35  1  0.61145400  0.37088000  0.87797500  1
  Si  Si36  1  0.75364900  0.76928900  0.11503600  1
  Si  Si37  1  0.76928900  0.75364900  0.61503600  1
  Si  Si38  1  0.48922400  0.85808800  0.01177900  1
  Si  Si39  1  0.62912000  0.38854600  0.62202500  1
  Si  Si40  1  0.51077600  0.14191200  0.98822100  1
  Si  Si41  1  0.24545700  0.89234000  0.50234900  1
  Si  Si42  1  0.23071100  0.24635100  0.38496400  1
  Si  Si43  1  0.34868800  0.87938400  0.63223200  1
  Si  Si44  1  0.00409900  0.73345500  0.62160300  1
  Si  Si45  1  0.75454300  0.10766000  0.49765100  1
  Si  Si46  1  0.38854600  0.62912000  0.12202500  1
  Si  Si47  1  0.37088000  0.61145400  0.37797500  1
  Si  Si48  1  0.85808800  0.48922400  0.51177900  1
  Si  Si49  1  0.65131200  0.12061600  0.36776800  1
  O  O50  1  0.67778000  0.17560200  0.98686400  1
  O  O51  1  0.40777500  0.88597700  0.40032100  1
  O  O52  1  0.93903600  0.74431000  0.97190700  1
  O  O53  1  0.30266700  0.29995600  0.34034700  1
  O  O54  1  0.72791400  0.02937000  0.18156200  1
  O  O55  1  0.11715000  0.56368000  0.87776700  1
  O  O56  1  0.74431000  0.93903600  0.47190700  1
  O  O57  1  0.26170600  0.30965800  0.73891000  1
  O  O58  1  0.83077900  0.26446100  0.96494700  1
  O  O59  1  0.69733300  0.70004400  0.65965300  1
  O  O60  1  0.56368000  0.11715000  0.37776700  1
  O  O61  1  0.55604600  0.54656700  0.08828700  1
  O  O62  1  0.24811800  0.60716800  0.29991700  1
  O  O63  1  0.24334000  0.53117000  0.91713000  1
  O  O64  1  0.11402300  0.59222500  0.09967900  1
  O  O65  1  0.97063000  0.27208600  0.31843800  1
  O  O66  1  0.92201500  0.89839400  0.03025100  1
  O  O67  1  0.39849700  0.55879900  0.10083400  1
  O  O68  1  0.26446100  0.83077900  0.46494700  1
  O  O69  1  0.89839400  0.92201500  0.53025100  1
  O  O70  1  0.21164300  0.39814000  0.58607800  1
  O  O71  1  0.55879900  0.39849700  0.60083400  1
  O  O72  1  0.45343300  0.44395400  0.41171300  1
  O  O73  1  0.25569000  0.06096400  0.52809300  1
  O  O74  1  0.39283200  0.75188200  0.20008300  1
  O  O75  1  0.17560200  0.67778000  0.48686400  1
  O  O76  1  0.92625800  0.62059800  0.75729500  1
  O  O77  1  0.54656700  0.55604600  0.58828700  1
  O  O78  1  0.62059800  0.92625800  0.25729500  1
  O  O79  1  0.96481800  0.65008700  0.54048400  1
  O  O80  1  0.75188200  0.39283200  0.70008300  1
  O  O81  1  0.02937000  0.72791400  0.68156200  1
  O  O82  1  0.88285000  0.43632000  0.12223300  1
  O  O83  1  0.78835700  0.60186000  0.41392200  1
  O  O84  1  0.60150300  0.44120100  0.89916600  1
  O  O85  1  0.73553900  0.16922100  0.53505300  1
  O  O86  1  0.12582400  0.41665600  0.51853900  1
  O  O87  1  0.41665600  0.12582400  0.01853900  1
  O  O88  1  0.37940200  0.07374200  0.74270500  1
  O  O89  1  0.70004400  0.69733300  0.15965300  1
  O  O90  1  0.30965800  0.26170600  0.23891000  1
  O  O91  1  0.73829400  0.69034200  0.26109000  1
  O  O92  1  0.69034200  0.73829400  0.76109000  1
  O  O93  1  0.16922100  0.73553900  0.03505300  1
  O  O94  1  0.75666000  0.46883000  0.08287000  1
  O  O95  1  0.79492000  0.17549300  0.18929400  1
  O  O96  1  0.43632000  0.88285000  0.62223300  1
  O  O97  1  0.20508000  0.82450700  0.81070600  1
  O  O98  1  0.06096400  0.25569000  0.02809300  1
  O  O99  1  0.10160600  0.07798500  0.46974900  1
  O  O100  1  0.58334400  0.87417600  0.98146100  1
  O  O101  1  0.34991300  0.03518200  0.95951600  1
  O  O102  1  0.87417600  0.58334400  0.48146100  1
  O  O103  1  0.44395400  0.45343300  0.91171300  1
  O  O104  1  0.07374200  0.37940200  0.24270500  1
  O  O105  1  0.82439800  0.32222000  0.51313600  1
  O  O106  1  0.17549300  0.79492000  0.68929400  1
  O  O107  1  0.60186000  0.78835700  0.91392200  1
  O  O108  1  0.60716800  0.24811800  0.79991700  1
  O  O109  1  0.29995600  0.30266700  0.84034700  1
  O  O110  1  0.82450700  0.20508000  0.31070600  1
  O  O111  1  0.44120100  0.60150300  0.39916600  1
  O  O112  1  0.53117000  0.24334000  0.41713000  1
  O  O113  1  0.46883000  0.75666000  0.58287000  1
  O  O114  1  0.07798500  0.10160600  0.96974900  1
  O  O115  1  0.59222500  0.11402300  0.59967900  1
  O  O116  1  0.32222000  0.82439800  0.01313600  1
  O  O117  1  0.88597700  0.40777500  0.90032100  1
  O  O118  1  0.27208600  0.97063000  0.81843800  1
  O  O119  1  0.03518200  0.34991300  0.45951600  1
  O  O120  1  0.39814000  0.21164300  0.08607800  1
  O  O121  1  0.65008700  0.96481800  0.04048400  1
  F  F122  1  0.17046300  0.03294000  0.25514700  1
  F  F123  1  0.96706000  0.82953700  0.24485300  1
  F  F124  1  0.03294000  0.17046300  0.75514700  1
  F  F125  1  0.82953700  0.96706000  0.74485300  1
