data_image0
_chemical_formula_structural       Co3Ni2Cu16Zn3Ru3Pt5
_chemical_formula_sum              "Co3 Ni2 Cu16 Zn3 Ru3 Pt5"
_cell_length_a       7.888
_cell_length_b       7.888
_cell_length_c       7.888
_cell_angle_alpha    90
_cell_angle_beta     90
_cell_angle_gamma    90

_space_group_name_H-M_alt    "P 1"
_space_group_IT_number       1

loop_
  _space_group_symop_operation_xyz
  'x, y, z'

loop_
  _atom_site_type_symbol
  _atom_site_label
  _atom_site_symmetry_multiplicity
  _atom_site_fract_x
  _atom_site_fract_y
  _atom_site_fract_z
  _atom_site_occupancy
  Co  Co1       1.0  0.50000  0.25000  0.75000  1.0000
  Co  Co2       1.0  0.25000  0.00000  0.75000  1.0000
  Co  Co3       1.0  0.25000  0.75000  0.50000  1.0000
  Ni  Ni1       1.0  0.75000  0.25000  0.50000  1.0000
  Ni  Ni2       1.0  0.00000  0.25000  0.75000  1.0000
  Cu  Cu1       1.0  0.25000  0.75000  0.00000  1.0000
  Cu  Cu2       1.0  0.50000  0.00000  0.50000  1.0000
  Cu  Cu3       1.0  0.75000  0.00000  0.75000  1.0000
  Cu  Cu4       1.0  0.50000  0.75000  0.25000  1.0000
  Cu  Cu5       1.0  0.00000  0.00000  0.00000  1.0000
  Cu  Cu6       1.0  0.25000  0.50000  0.75000  1.0000
  Cu  Cu7       1.0  0.75000  0.50000  0.25000  1.0000
  Cu  Cu8       1.0  0.00000  0.50000  0.50000  1.0000
  Cu  Cu9       1.0  0.75000  0.75000  0.00000  1.0000
  Cu  Cu10      1.0  0.00000  0.75000  0.25000  1.0000
  Cu  Cu11      1.0  0.00000  0.50000  0.00000  1.0000
  Cu  Cu12      1.0  0.50000  0.75000  0.75000  1.0000
  Cu  Cu13      1.0  0.00000  0.00000  0.50000  1.0000
  Cu  Cu14      1.0  0.25000  0.25000  0.00000  1.0000
  Cu  Cu15      1.0  0.25000  0.00000  0.25000  1.0000
  Cu  Cu16      1.0  0.75000  0.75000  0.50000  1.0000
  Zn  Zn1       1.0  0.50000  0.00000  0.00000  1.0000
  Zn  Zn2       1.0  0.75000  0.25000  0.00000  1.0000
  Zn  Zn3       1.0  0.00000  0.25000  0.25000  1.0000
  Ru  Ru1       1.0  0.50000  0.50000  0.00000  1.0000
  Ru  Ru2       1.0  0.25000  0.50000  0.25000  1.0000
  Ru  Ru3       1.0  0.75000  0.50000  0.75000  1.0000
  Pt  Pt1       1.0  0.75000  0.00000  0.25000  1.0000
  Pt  Pt2       1.0  0.50000  0.25000  0.25000  1.0000
  Pt  Pt3       1.0  0.00000  0.75000  0.75000  1.0000
  Pt  Pt4       1.0  0.50000  0.50000  0.50000  1.0000
  Pt  Pt5       1.0  0.25000  0.25000  0.50000  1.0000
