data_image0
_chemical_formula_structural       Co10Ni5Cu50Zn10Ru10Pt23
_chemical_formula_sum              "Co10 Ni5 Cu50 Zn10 Ru10 Pt23"
_cell_length_a       11.832
_cell_length_b       11.832
_cell_length_c       11.832
_cell_angle_alpha    90
_cell_angle_beta     90
_cell_angle_gamma    90

_space_group_name_H-M_alt    "P 1"
_space_group_IT_number       1

loop_
  _space_group_symop_operation_xyz
  'x, y, z'

loop_
  _atom_site_type_symbol
  _atom_site_label
  _atom_site_symmetry_multiplicity
  _atom_site_fract_x
  _atom_site_fract_y
  _atom_site_fract_z
  _atom_site_occupancy
  Co  Co1       1.0  0.33333  0.33333  0.00000  1.0000
  Co  Co2       1.0  0.50000  0.33333  0.16667  1.0000
  Co  Co3       1.0  0.83333  0.66667  0.50000  1.0000
  Co  Co4       1.0  0.50000  0.83333  0.00000  1.0000
  Co  Co5       1.0  0.00000  0.50000  0.83333  1.0000
  Co  Co6       1.0  0.33333  0.16667  0.50000  1.0000
  Co  Co7       1.0  0.66667  0.66667  0.00000  1.0000
  Co  Co8       1.0  0.16667  0.00000  0.83333  1.0000
  Co  Co9       1.0  0.00000  0.83333  0.83333  1.0000
  Co  Co10      1.0  0.33333  0.00000  0.00000  1.0000
  Ni  Ni1       1.0  0.83333  0.83333  0.66667  1.0000
  Ni  Ni2       1.0  0.50000  0.66667  0.83333  1.0000
  Ni  Ni3       1.0  0.16667  0.83333  0.33333  1.0000
  Ni  Ni4       1.0  0.66667  0.33333  0.33333  1.0000
  Ni  Ni5       1.0  0.83333  0.50000  0.33333  1.0000
  Cu  Cu1       1.0  0.00000  0.00000  0.00000  1.0000
  Cu  Cu2       1.0  0.50000  0.50000  0.33333  1.0000
  Cu  Cu3       1.0  0.33333  0.66667  0.00000  1.0000
  Cu  Cu4       1.0  0.33333  0.83333  0.16667  1.0000
  Cu  Cu5       1.0  0.50000  0.66667  0.16667  1.0000
  Cu  Cu6       1.0  0.33333  0.50000  0.50000  1.0000
  Cu  Cu7       1.0  0.33333  0.33333  0.33333  1.0000
  Cu  Cu8       1.0  0.50000  0.50000  0.00000  1.0000
  Cu  Cu9       1.0  0.50000  0.33333  0.50000  1.0000
  Cu  Cu10      1.0  0.33333  0.83333  0.50000  1.0000
  Cu  Cu11      1.0  0.50000  0.66667  0.50000  1.0000
  Cu  Cu12      1.0  0.50000  0.83333  0.33333  1.0000
  Cu  Cu13      1.0  0.50000  0.16667  0.66667  1.0000
  Cu  Cu14      1.0  0.66667  0.50000  0.16667  1.0000
  Cu  Cu15      1.0  0.83333  0.66667  0.83333  1.0000
  Cu  Cu16      1.0  0.66667  0.83333  0.83333  1.0000
  Cu  Cu17      1.0  0.83333  0.83333  0.33333  1.0000
  Cu  Cu18      1.0  0.66667  0.83333  0.50000  1.0000
  Cu  Cu19      1.0  0.66667  0.66667  0.33333  1.0000
  Cu  Cu20      1.0  0.83333  0.83333  0.00000  1.0000
  Cu  Cu21      1.0  0.83333  0.33333  0.83333  1.0000
  Cu  Cu22      1.0  0.83333  0.50000  0.00000  1.0000
  Cu  Cu23      1.0  0.83333  0.33333  0.16667  1.0000
  Cu  Cu24      1.0  0.50000  0.83333  0.66667  1.0000
  Cu  Cu25      1.0  0.66667  0.33333  0.00000  1.0000
  Cu  Cu26      1.0  0.83333  0.00000  0.83333  1.0000
  Cu  Cu27      1.0  0.66667  0.00000  0.66667  1.0000
  Cu  Cu28      1.0  0.83333  0.16667  0.33333  1.0000
  Cu  Cu29      1.0  0.83333  0.00000  0.50000  1.0000
  Cu  Cu30      1.0  0.66667  0.16667  0.50000  1.0000
  Cu  Cu31      1.0  0.66667  0.00000  0.33333  1.0000
  Cu  Cu32      1.0  0.83333  0.00000  0.16667  1.0000
  Cu  Cu33      1.0  0.16667  0.50000  0.00000  1.0000
  Cu  Cu34      1.0  0.00000  0.83333  0.16667  1.0000
  Cu  Cu35      1.0  0.00000  0.66667  0.00000  1.0000
  Cu  Cu36      1.0  0.16667  0.33333  0.83333  1.0000
  Cu  Cu37      1.0  0.00000  0.33333  0.66667  1.0000
  Cu  Cu38      1.0  0.00000  0.50000  0.50000  1.0000
  Cu  Cu39      1.0  0.16667  0.66667  0.83333  1.0000
  Cu  Cu40      1.0  0.16667  0.83333  0.66667  1.0000
  Cu  Cu41      1.0  0.33333  0.16667  0.16667  1.0000
  Cu  Cu42      1.0  0.00000  0.33333  0.33333  1.0000
  Cu  Cu43      1.0  0.00000  0.50000  0.16667  1.0000
  Cu  Cu44      1.0  0.00000  0.33333  0.00000  1.0000
  Cu  Cu45      1.0  0.50000  0.00000  0.16667  1.0000
  Cu  Cu46      1.0  0.50000  0.00000  0.50000  1.0000
  Cu  Cu47      1.0  0.16667  0.00000  0.50000  1.0000
  Cu  Cu48      1.0  0.00000  0.00000  0.33333  1.0000
  Cu  Cu49      1.0  0.16667  0.00000  0.16667  1.0000
  Cu  Cu50      1.0  0.33333  0.16667  0.83333  1.0000
  Zn  Zn1       1.0  0.00000  0.16667  0.16667  1.0000
  Zn  Zn2       1.0  0.66667  0.50000  0.83333  1.0000
  Zn  Zn3       1.0  0.00000  0.16667  0.83333  1.0000
  Zn  Zn4       1.0  0.83333  0.16667  0.00000  1.0000
  Zn  Zn5       1.0  0.50000  0.33333  0.83333  1.0000
  Zn  Zn6       1.0  0.00000  0.66667  0.66667  1.0000
  Zn  Zn7       1.0  0.00000  0.66667  0.33333  1.0000
  Zn  Zn8       1.0  0.50000  0.16667  0.33333  1.0000
  Zn  Zn9       1.0  0.16667  0.66667  0.50000  1.0000
  Zn  Zn10      1.0  0.33333  0.00000  0.66667  1.0000
  Ru  Ru1       1.0  0.50000  0.00000  0.83333  1.0000
  Ru  Ru2       1.0  0.83333  0.50000  0.66667  1.0000
  Ru  Ru3       1.0  0.83333  0.33333  0.50000  1.0000
  Ru  Ru4       1.0  0.66667  0.83333  0.16667  1.0000
  Ru  Ru5       1.0  0.16667  0.16667  0.33333  1.0000
  Ru  Ru6       1.0  0.66667  0.16667  0.83333  1.0000
  Ru  Ru7       1.0  0.00000  0.83333  0.50000  1.0000
  Ru  Ru8       1.0  0.33333  0.50000  0.16667  1.0000
  Ru  Ru9       1.0  0.66667  0.00000  0.00000  1.0000
  Ru  Ru10      1.0  0.16667  0.66667  0.16667  1.0000
  Pt  Pt1       1.0  0.00000  0.16667  0.50000  1.0000
  Pt  Pt2       1.0  0.66667  0.66667  0.66667  1.0000
  Pt  Pt3       1.0  0.16667  0.16667  0.00000  1.0000
  Pt  Pt4       1.0  0.00000  0.00000  0.66667  1.0000
  Pt  Pt5       1.0  0.83333  0.66667  0.16667  1.0000
  Pt  Pt6       1.0  0.33333  0.00000  0.33333  1.0000
  Pt  Pt7       1.0  0.33333  0.50000  0.83333  1.0000
  Pt  Pt8       1.0  0.16667  0.16667  0.66667  1.0000
  Pt  Pt9       1.0  0.50000  0.16667  0.00000  1.0000
  Pt  Pt10      1.0  0.66667  0.33333  0.66667  1.0000
  Pt  Pt11      1.0  0.33333  0.33333  0.66667  1.0000
  Pt  Pt12      1.0  0.66667  0.50000  0.50000  1.0000
  Pt  Pt13      1.0  0.33333  0.83333  0.83333  1.0000
  Pt  Pt14      1.0  0.16667  0.33333  0.16667  1.0000
  Pt  Pt15      1.0  0.50000  0.50000  0.66667  1.0000
  Pt  Pt16      1.0  0.83333  0.16667  0.66667  1.0000
  Pt  Pt17      1.0  0.16667  0.33333  0.50000  1.0000
  Pt  Pt18      1.0  0.16667  0.50000  0.33333  1.0000
  Pt  Pt19      1.0  0.33333  0.66667  0.33333  1.0000
  Pt  Pt20      1.0  0.16667  0.50000  0.66667  1.0000
  Pt  Pt21      1.0  0.33333  0.66667  0.66667  1.0000
  Pt  Pt22      1.0  0.66667  0.16667  0.16667  1.0000
  Pt  Pt23      1.0  0.16667  0.83333  0.00000  1.0000
